Version 4
SHEET 1 880 680
SYMBOL res -16 80 R0
SYMATTR InstName R1
SYMBOL cap 144 96 R0
SYMATTR InstName C1
SYMBOL ind 240 96 R0
SYMATTR InstName L1
SYMBOL diode 384 96 R0
SYMATTR InstName D1
